powerflow/tests/4node/balanced_stepup_D-D.glm
// $id$
//	Copyright (C) 2008 Battelle Memorial Institute

// 4 Node Feeder: Balanced step-up delta-delta

clock {
	timestamp '2000-01-01 0:00:00';
	timezone EST+5EDT;
}

module powerflow;

object overhead_line_conductor:100 {
	geometric_mean_radius 0.0244;
	resistance 0.306;
}

object overhead_line_conductor:101 {
	geometric_mean_radius 0.00814;
	resistance 0.592;
}

object line_spacing:200 {
	distance_AtoB 2.5;
	distance_BtoC 4.5;
	distance_AtoC 7.0;
	distance_AtoN 5.656854;
	distance_BtoN 4.272002;
	distance_CtoN 5.0;
}

object line_configuration:300 {
	phaseA_conductor overhead_line_conductor:100;
	phaseB_conductor overhead_line_conductor:100;
	phaseC_conductor overhead_line_conductor:100;
	phaseN_conductor overhead_line_conductor:101;
	line_spacing line_spacing:200;
}

object transformer_configuration:400 {
	connect_type 2;
	kVA_rating 6000;
	V_primary 12470;
	V_secondary 24900;
	R_pu 0.01;
	X_pu 0.06;
}

object node:1 {
	phases "ABC";
	voltage_A +7199.558+0.000j;
	voltage_B -3599.779-6235.000j;
	voltage_C -3599.779+6235.000j;
}

object overhead_line:12 {
	phases "ABC";
	from node:1;
	to node:2;
	length 2000;
	configuration line_configuration:300;
}

object node:2 {
	phases "ABC";
	voltage_A +7199.558+0.000j;
	voltage_B -3599.779-6235.000j;
	voltage_C -3599.779+6235.000j;
}

object transformer:23 {
	phases "ABC";
	from node:2;
	to node:3;
	configuration transformer_configuration:400;
}

object node:3 {
	phases "ABC";
	voltage_A +14376.022+0.000j;
	voltage_B -7188.011-12450.000j;
	voltage_C -7188.011+12450.000j;
}

object overhead_line:34 {
	phases "ABC";
	from node:3;
	to load:4;
	length 2500;
	configuration line_configuration:300;
}

object load:4 {
	phases "ABCD";
	voltage_A +14376.022+0.000j;
	voltage_B -7188.011-12450.000j;
	voltage_C -7188.011+12450.000j;
	power_A +1800000.000+871779.789j;
	power_B +1800000.000+871779.789j;
	power_C +1800000.000+871779.789j;
	maximum_voltage_error 0.001;
}

